Version 4.1
SHEET 1 880 680
WIRE 352 -80 304 -80
WIRE 464 -80 432 -80
WIRE 208 48 192 48
WIRE 304 48 304 -80
WIRE 304 48 288 48
WIRE 336 48 304 48
WIRE 384 48 384 32
WIRE 464 48 464 -80
WIRE 464 48 432 48
WIRE 80 160 48 160
WIRE 192 160 192 48
WIRE 192 160 160 160
WIRE 224 160 192 160
WIRE 272 160 272 144
WIRE 464 160 464 48
WIRE 464 160 320 160
WIRE 496 160 464 160
WIRE 608 160 576 160
WIRE 48 192 48 160
WIRE 464 304 464 160
WIRE 496 304 464 304
WIRE 608 320 608 160
WIRE 608 320 560 320
WIRE 672 320 608 320
WIRE 496 336 464 336
FLAG 48 192 0
FLAG 672 320 Vout
FLAG 528 288 +10V
FLAG -128 -48 +10V
FLAG 528 352 -10V
FLAG 272 144 -10V
FLAG 384 32 -10V
FLAG -16 32 -10V
FLAG -16 -48 0
FLAG -128 32 0
FLAG 384 336 0
FLAG -224 432 0
FLAG -112 272 0
FLAG -224 352 Vg2
FLAG 416 96 Vg2
FLAG -112 192 Vg3
FLAG 304 208 Vg3
SYMBOL res 176 144 R90
WINDOW 0 0 56 VBottom 2
WINDOW 3 32 56 VTop 2
SYMATTR InstName R1
SYMATTR Value 3.3k
SYMBOL nmos4 224 208 R270
SYMATTR InstName M1
SYMATTR Value2 l=1u w=10m
SYMBOL res 304 32 R90
WINDOW 0 0 56 VBottom 2
WINDOW 3 32 56 VTop 2
SYMATTR InstName R2
SYMATTR Value 2.2k
SYMBOL res 448 -96 R90
WINDOW 0 0 56 VBottom 2
WINDOW 3 32 56 VTop 2
SYMATTR InstName R3
SYMATTR Value 4.7k
SYMBOL nmos4 336 96 R270
SYMATTR InstName M2
SYMATTR Value2 l=1u w=10m
SYMBOL res 592 144 R90
WINDOW 0 0 56 VBottom 2
WINDOW 3 32 56 VTop 2
SYMATTR InstName R4
SYMATTR Value 15k
SYMBOL OpAmps\\AD8065 528 256 R0
SYMATTR InstName U1
SYMBOL voltage -128 -64 R0
WINDOW 123 0 0 Left 0
WINDOW 39 0 0 Left 0
SYMATTR InstName V1
SYMATTR Value 10
SYMBOL voltage -16 -64 R0
WINDOW 123 0 0 Left 0
WINDOW 39 0 0 Left 0
SYMATTR InstName V2
SYMATTR Value 10
SYMBOL voltage -224 336 R0
WINDOW 123 0 0 Left 0
WINDOW 39 0 0 Left 0
SYMATTR InstName Vg2
SYMATTR Value {if(STARE==2, 10, -10)}
SYMBOL voltage -112 176 R0
WINDOW 123 0 0 Left 0
WINDOW 39 0 0 Left 0
SYMATTR InstName Vg3
SYMATTR Value {if(STARE==3, 10, -10)}
SYMBOL voltage 480 336 R90
WINDOW 0 -32 56 VBottom 2
WINDOW 3 32 56 VTop 2
WINDOW 123 60 56 VTop 2
WINDOW 39 0 0 Left 0
SYMATTR InstName V3
SYMATTR Value SINE(0 0.1 10k)
TEXT 168 464 Left 2 !;step param STARE list 1 2 3
TEXT 168 488 Left 2 !;op
TEXT 168 512 Left 2 !;ac dec 20 1 10Meg
TEXT 168 536 Left 2 !.param STARE=3
TEXT 168 560 Left 2 !.tran 2m
TEXT 168 584 Left 2 !.four 10k V(vout)
